
     RDKit          3D

  0  0  0  0  0  0  0  0  0  0999 V3000
M  V30 BEGIN CTAB
M  V30 COUNTS 26 25 0 0 0
M  V30 BEGIN ATOM
M  V30 1 C -2.30498 1.47759 -2.75761 0
M  V30 2 C -1.73071 0.595668 -1.69734 0
M  V30 3 O -2.00585 -0.634893 -1.69398 0
M  V30 4 N -0.877196 1.15436 -0.688348 0
M  V30 5 C -0.26175 0.334736 0.361444 0 CFG=1
M  V30 6 C 0.911577 -0.479915 -0.227555 0
M  V30 7 C 1.6414 -1.37832 0.791712 0
M  V30 8 C 0.756098 -2.44715 1.46171 0
M  V30 9 N 0.152954 -3.36616 0.49681 0
M  V30 10 C 0.194815 1.21516 1.49916 0
M  V30 11 O -0.289476 1.04982 2.64979 0
M  V30 12 O 1.1464 2.21302 1.30025 0
M  V30 13 H -2.92449 2.26908 -2.28682 0
M  V30 14 H -1.48169 1.95086 -3.33215 0
M  V30 15 H -2.93968 0.890233 -3.45484 0
M  V30 16 H -0.730629 2.18992 -0.691909 0
M  V30 17 H -1.03404 -0.364426 0.749614 0
M  V30 18 H 1.65556 0.219099 -0.667264 0
M  V30 19 H 0.547648 -1.10716 -1.06798 0
M  V30 20 H 2.09654 -0.745435 1.58349 0
M  V30 21 H 2.48188 -1.88697 0.271317 0
M  V30 22 H 1.38841 -3.03665 2.1596 0
M  V30 23 H -0.0376694 -1.97124 2.07527 0
M  V30 24 H -0.593485 -2.86419 -0.0353711 0
M  V30 25 H 0.881596 -3.68538 -0.182295 0
M  V30 26 H 1.55163 2.38437 0.388233 0
M  V30 END ATOM
M  V30 BEGIN BOND
M  V30 1 1 1 2
M  V30 2 2 2 3
M  V30 3 1 2 4
M  V30 4 1 4 5
M  V30 5 1 5 6
M  V30 6 1 6 7
M  V30 7 1 7 8
M  V30 8 1 8 9
M  V30 9 1 5 10
M  V30 10 2 10 11
M  V30 11 1 10 12
M  V30 12 1 1 13
M  V30 13 1 1 14
M  V30 14 1 1 15
M  V30 15 1 4 16
M  V30 16 1 5 17 CFG=1
M  V30 17 1 6 18
M  V30 18 1 6 19
M  V30 19 1 7 20
M  V30 20 1 7 21
M  V30 21 1 8 22
M  V30 22 1 8 23
M  V30 23 1 9 24
M  V30 24 1 9 25
M  V30 25 1 12 26
M  V30 END BOND
M  V30 END CTAB
M  END
$$$$
